/*--------------------------------*- C++ -*----------------------------------*\
| =========                 |                                                 |
| \\      /  F ield         | OpenFOAM: The Open Source CFD Toolbox           |
|  \\    /   O peration     | Version:  1.6                                   |
|   \\  /    A nd           | Web:      http://www.OpenFOAM.org               |
|    \\/     M anipulation  |                                                 |
\*---------------------------------------------------------------------------*/
FoamFile
{
    version     2.0;
    format      ascii;
    class       volVectorField;
    object      U;
}
// * * * * * * * * * * * * * * * * * * * * * * * * * * * * * * * * * * * * * //

dimensions      [0 1 -1 0 0 0 0];

internalField   uniform (0.1375 0 0);

boundaryField
{
    bottomWall
      {
        type            fixedValue;
        value           uniform (0 0 0);
      }
    topWall
      {
        type            fixedValue;
        value           uniform (0 0 0);
      }
    sides1
      {
        type            cyclic;//empty;
      }
    sides2
      {
        type            cyclic;//empty;
      }
    inout1
      {
        type            cyclic;
      }
    inout2
      {
        type            cyclic;
      }
}

// ************************************************************************* //
